obj01
  PyMOL3.0          3D                             0

 18 20  0  0  0  0  0  0  0  0999 V2000
    8.2580    0.6930   22.5510 N   0  0  0  0  0  0  0  0  0  0  0  0
    9.7220    1.5460   24.3360 C   0  0  0  0  0  0  0  0  0  0  0  0
   10.4010    2.3860   24.8910 O   0  0  0  0  0  0  0  0  0  0  0  0
    9.0650    1.8140   22.9920 C   0  0  0  0  0  0  0  0  0  0  0  0
    8.9120    0.8050   20.3430 N   0  0  0  0  0  0  0  0  0  0  0  0
    9.4630    0.3600   24.8400 O   0  0  0  0  0  0  0  0  0  0  0  0
    8.2210    3.0930   23.0530 C   0  0  0  0  0  0  0  0  0  0  0  0
    8.3390   -0.9240   18.7650 N   0  0  0  0  0  0  0  0  0  0  0  0
    6.9970    2.9920   23.9590 C   0  0  0  0  0  0  0  0  0  0  0  0
    7.2030   -2.8330   19.7180 N   0  0  0  0  0  0  0  0  0  0  0  0
    7.1410    3.2710   25.4240 C   0  0  0  0  0  0  0  0  0  0  0  0
    6.4020    4.2330   24.5500 C   0  0  0  0  0  0  0  0  0  0  0  0
    8.3230    0.1190   21.3430 C   0  0  0  0  0  0  0  0  0  0  0  0
    8.8760    0.2440   19.1310 C   0  0  0  0  0  0  0  0  0  0  0  0
    7.7720   -1.5920   19.7820 C   0  0  0  0  0  0  0  0  0  0  0  0
    6.8200   -3.1920   20.9890 C   0  0  0  0  0  0  0  0  0  0  0  0
    7.1250   -2.2010   21.8670 C   0  0  0  0  0  0  0  0  0  0  0  0
    7.7300   -1.1570   21.1110 C   0  0  0  0  0  0  0  0  0  0  0  0
  1  4  1  0  0  0  0
  1 13  1  0  0  0  0
  2  3  4  0  0  0  0
  2  4  1  0  0  0  0
  2  6  4  0  0  0  0
  4  7  1  0  0  0  0
  5 13  4  0  0  0  0
  5 14  4  0  0  0  0
  7  9  1  0  0  0  0
  8 14  4  0  0  0  0
  8 15  4  0  0  0  0
  9 11  1  0  0  0  0
  9 12  1  0  0  0  0
 10 15  4  0  0  0  0
 10 16  4  0  0  0  0
 11 12  1  0  0  0  0
 13 18  4  0  0  0  0
 15 18  4  0  0  0  0
 16 17  4  0  0  0  0
 17 18  4  0  0  0  0
M  END
$$$$
